{"id":"0x7BaeDD3d17eA0F48F38056b13F72B81d7fbB8CC5-list-links.following-0","version":"rss3.io/version/v0.3.1","date_created":"2021-12-25T06:21:48.325Z","date_updated":"2022-02-08T04:17:57.924Z","agent_id":"GUqkgajsSWUbRB15qlhxSjoD0nDn0U5RjuXZX56iw4E=","list":["0x7c9FFd960309DF4c0a14e88D97f28Ba8530C8473","0xE1A2CdD4FB58Eee09da78Db898ADBaDCfE5f1780","0x86Cad7b97793BE93f8085aC50380c7a4FaD6F2f9","0x112D960C88de18482C5f4069c0286a5a57Bab086","0x1cA9db2dAcFF46Fb724070eCE2385fc838aF0a8a","0x827431510a5D249cE4fdB7F00C83a3353F471848","0x8a4a50B13Fd2cb36FeB96c408CB98B4c9F2b8F25","0x53AFdcd8197A9FEF79729f2D6AEE5954aEC1E0D3","0xDB099E06e52c611a702840ca986F75662A8bCA60","0xc256B0baCe35a0389869a2B170bC4b843fFd86fe","0x5fA591AA667e21a929ff87413b7F92a33E05b8E7","0x2fF3f1B9fD0fFa711e5121FF12ffEc3443240338","0xcADaA055AAda68A2C2a5aeAcbD808BaEaBC8504F","0xFB640aFd33c4D08a981A39F6Ae6a604c9dA54A99","0x6fF50BeD54Af47d7bc892311669aFc49977f8f30","0xeD0AbD0Bd955b03CbbF6312C67795C141D9477C6","0x12F980A54f83958Ac43325d8d9E0eF38E1263f0C","0xb31Cd7774Ce51DB73f66199Ac24435D4a3FDC6eD","0x7EFf7eeE42Dc0Bd27081A78fE23CFE2a72697f2B"],"signature":"0xd79002f605610218a2a18b0184603f87fac49eea833606df39186cee24ef881e0bc3f6b9abc29ac354a86aaeb3b900b3f8b17410953525f4f3ff7305e2e669731c","agent_signature":"xhVks051n86Z5txRcrfhXFL/MT3DLVGeCkvzakx9teQiMXbuftB6rXIQyZho7t5cbrbfYsJtUKpenKp/KBdyAA=="}